SOLVER= RANS
KIND_TURB_MODEL= SA
MATH_PROBLEM= DIRECT
RESTART_SOL= NO
MACH_NUMBER= 0.15
AOA= 15.0
FREESTREAM_TEMPERATURE= 300.0
REYNOLDS_NUMBER= 6.0E6
REYNOLDS_LENGTH= 1.0
REF_ORIGIN_MOMENT_X= 0.25
REF_ORIGIN_MOMENT_Y= 0.00
REF_ORIGIN_MOMENT_Z= 0.00
REF_LENGTH= 1.0
REF_AREA= 1.0
MARKER_HEATFLUX= ( airfoil, 0.0 )
MARKER_FAR= ( farfield )
MARKER_PLOTTING= ( airfoil )
MARKER_MONITORING= ( airfoil )
MARKER_DEFORM_MESH= (airfoil)
MARKER_FLUID_LOAD= ( airfoil )
NUM_METHOD_GRAD= GREEN_GAUSS
CFL_NUMBER= 25.0
CFL_ADAPT= NO
CFL_ADAPT_PARAM= ( 0.1, 1.2, 25.0, 1e3 )
MAX_DELTA_TIME= 1E6
RK_ALPHA_COEFF= ( 0.66667, 0.66667, 1.000000 )
ITER= 99999
VENKAT_LIMITER_COEFF= 0.05
ADJ_SHARP_LIMITER_COEFF= 3.0
REF_SHARP_EDGES= 3.0
SENS_REMOVE_SHARP= NO
LINEAR_SOLVER= FGMRES
LINEAR_SOLVER_PREC= ILU
LINEAR_SOLVER_ILU_FILL_IN= 0
LINEAR_SOLVER_ERROR= 1E-10
LINEAR_SOLVER_ITER= 20
MGLEVEL= 0
MG_PRE_SMOOTH= ( 1, 1, 1, 1, 1, 1 )
MG_POST_SMOOTH= ( 0, 0, 0, 0, 0, 0 )
MG_CORRECTION_SMOOTH= ( 0, 0, 0, 0, 0, 0 )
MG_DAMP_RESTRICTION= 0.75
MG_DAMP_PROLONGATION= 0.75
CONV_NUM_METHOD_FLOW= ROE
MUSCL_FLOW= YES
SLOPE_LIMITER_FLOW= VENKATAKRISHNAN
JST_SENSOR_COEFF= ( 0.5, 0.02 )
TIME_DISCRE_FLOW= EULER_IMPLICIT
CONV_NUM_METHOD_TURB= SCALAR_UPWIND
MUSCL_TURB= NO
SLOPE_LIMITER_TURB= VENKATAKRISHNAN
TIME_DISCRE_TURB= EULER_IMPLICIT
CFL_REDUCTION_TURB= 1.0
CONV_RESIDUAL_MINVAL= -6
CONV_STARTITER= 250
CONV_CAUCHY_ELEMS= 100
CONV_CAUCHY_EPS= 1E-5
MESH_FILENAME= mesh_n0012_225-65.su2
MESH_FORMAT= SU2
MESH_OUT_FILENAME= mesh_out.su2
SOLUTION_FILENAME= solution_flow.dat
SOLUTION_ADJ_FILENAME= solution_adj.dat
TABULAR_FORMAT= CSV
CONV_FILENAME= history_direct
RESTART_FILENAME= restart_flow.dat
RESTART_ADJ_FILENAME= restart_adj.dat
VOLUME_FILENAME= flow
VOLUME_ADJ_FILENAME= adjoint
GRAD_OBJFUNC_FILENAME= of_grad.dat
SURFACE_FILENAME= surface_flow
SURFACE_ADJ_FILENAME= surface_adjoint
SCREEN_OUTPUT= (INNER_ITER, WALL_TIME, RMS_PRESSURE, RMS_NU_TILDE, LIFT, DRAG)
DV_VALUE_NEW= 0
DV_VALUE_OLD= 0
OPT_ITERATIONS= 100
OPT_ACCURACY= 1e-10
OPT_RELAX_FACTOR= 1.0
OPT_GRADIENT_FACTOR= 1.0
OPT_BOUND_UPPER= 10000000000.0
OPT_BOUND_LOWER= -10000000000.0
OPT_COMBINE_OBJECTIVE= NO
OPT_CONSTRAINT= NONE
VALUE_OBJFUNC_FILENAME= of_eval.dat
SIDESLIP_ANGLE= 0.0
TARGET_CL= 0.0
FREESTREAM_PRESSURE= 101325.0
MARKER_OUTLET= (NONE)
MULTIPOINT_WEIGHT= (1.0)
MULTIPOINT_MACH_NUMBER= (0.15)
MULTIPOINT_AOA= (15.0)
MULTIPOINT_SIDESLIP_ANGLE= (0.0)
MULTIPOINT_REYNOLDS_NUMBER= (6.0E6)
MULTIPOINT_TARGET_CL= (0.0)
MULTIPOINT_FREESTREAM_PRESSURE= (101325.0)
MULTIPOINT_FREESTREAM_TEMPERATURE= (300.0)
MULTIPOINT_OUTLET_VALUE= (0.0)
MULTIPOINT_MESH_FILENAME= (mesh_n0012_225-65.su2)
HISTORY_OUTPUT= ITER, RMS_RES, AERO_COEFF
OBJECTIVE_FUNCTION= DRAG
DV_KIND= FFD_SETTING
DV_PARAM= ( 1, 0.5) 
DEFINITION_DV= ( 30 , 1.0 | WING  | 0.0 , 0.05  )
NUMBER_PART= 2
EXT_ITER= 99999
AoA= 0.0
DV_VALUE= 0
